
#######################################################################
#
#                 Cambridge Crystallographic Data Centre
#                                CCDC 
#
#######################################################################
#
# If this CIF has been generated from an entry in the Cambridge 
# Structural Database, then it will include bibliographic, chemical, 
# crystal, experimental, refinement or atomic coordinate data resulting 
# from the CCDC's data processing and validation procedures.
#
#######################################################################

data_HEBGAX
_cell_length_a                   1
_cell_length_b                   1
_cell_length_c                   1
_cell_angle_alpha                90
_cell_angle_beta                 90
_cell_angle_gamma                90
_cell_volume                     1
loop_
_atom_site_label
_atom_site_type_symbol
_atom_site_fract_x
_atom_site_fract_y
_atom_site_fract_z
C1 C 5.0286 3.0058 2.6962
C2 C 5.0937 3.5968 4.0566
C3 C 6.1606 4.1538 4.7595
C4 C 5.9244 4.742 5.9958
C5 C 4.644 4.7664 6.5419
C6 C 3.5691 4.2574 5.836
C7 C 3.7945 3.7043 4.5781
C8 C 2.854 3.2129 3.5729
C9 C 1.4775 3.058 3.647
C10 C 0.8062 2.5133 2.5621
C11 C 1.5115 2.128 1.4259
C12 C 2.8901 2.2809 1.3432
C13 C 3.5779 2.8374 2.4214
C14 C 6.0583 2.6974 1.8677
C15 C 7.495 2.5711 2.1669
C16 C 8.1611 2.0326 3.3138
C17 C 7.49 1.4455 4.4161
C18 C 8.1968 0.9241 5.4667
C19 C 9.6042 0.9698 5.4843
C20 C 10.2831 1.4963 4.4257
C21 C 9.5887 2.0194 3.3003
C22 C 10.2862 2.485 2.1552
C23 C 9.624 2.9006 1.0289
C24 C 8.2202 2.9191 1.0373
C25 C 7.2865 3.269 -0.0929
C26 C 5.9578 2.6059 0.3472
C27 C 5.8889 1.1666 -0.1691
H28 H 7.0798 4.1463 4.3832
H29 H 6.6668 5.1624 6.4843
H30 H 4.4909 5.1753 7.4385
H31 H 2.6544 4.3169 6.2057
H32 H 1.0108 3.3049 4.4814
H33 H -0.1374 2.3982 2.5901
H34 H 1.0298 1.7511 0.664
H35 H 3.3485 1.9843 0.5274
H36 H 6.5114 1.4152 4.4013
H37 H 7.7041 0.5113 6.1947
H38 H 10.084 0.6266 6.242
H39 H 11.2725 1.5129 4.402
H40 H 11.268 2.4597 2.1769
H41 H 10.1109 3.1562 0.2165
H42 H 7.1702 4.2394 -0.1446
H43 H 7.603 2.941 -0.982
H44 H 5.1675 3.0992 0.0149
H45 H 6.7499 0.6934 0.0389
H46 H 5.1312 0.6544 0.2303
H47 H 5.7912 1.1758 -1.1631

#END
